<?xml version="1.0" encoding="UTF-8"?>

<routes xmlns:xsi="http://www.w3.org/2001/XMLSchema-instance" xsi:noNamespaceSchemaLocation="http://sumo.dlr.de/xsd/routes_file.xsd">

    <!-- Vehicle Types -->
    <vType id="car" accel="2.6" decel="4.5" sigma="0.5" length="5.0" minGap="2.5" maxSpeed="50.0" color="yellow"/>
    <vType id="truck" accel="1.5" decel="3.5" sigma="0.3" length="12.0" minGap="3.0" maxSpeed="40.0" color="blue"/>

    <!-- Routes for different movement patterns -->
    <route id="north_south_straight" edges="north_in south_out"/>
    <route id="north_east_right" edges="north_in east_out"/>
    <route id="north_west_left" edges="north_in west_out"/>
    <route id="south_north_straight" edges="south_in north_out"/>
    <route id="south_east_left" edges="south_in east_out"/>
    <route id="south_west_right" edges="south_in west_out"/>
    <route id="east_west_straight" edges="east_in west_out"/>
    <route id="east_north_left" edges="east_in north_out"/>
    <route id="east_south_right" edges="east_in south_out"/>
    <route id="west_east_straight" edges="west_in east_out"/>
    <route id="west_north_right" edges="west_in north_out"/>
    <route id="west_south_left" edges="west_in south_out"/>

    <!-- Balanced Traffic Pattern - Medium Volume -->
    <!-- Balanced traffic from all directions -->
    <flow id="balanced_north_south" route="north_south_straight" begin="0" end="3600" vehsPerHour="400" type="car"/>
    <flow id="balanced_south_north" route="south_north_straight" begin="0" end="3600" vehsPerHour="400" type="car"/>
    <flow id="balanced_east_west" route="east_west_straight" begin="0" end="3600" vehsPerHour="400" type="car"/>
    <flow id="balanced_west_east" route="west_east_straight" begin="0" end="3600" vehsPerHour="400" type="car"/>
    
    <!-- Turning movements -->
    <flow id="balanced_north_east" route="north_east_right" begin="0" end="3600" vehsPerHour="150" type="car"/>
    <flow id="balanced_north_west" route="north_west_left" begin="0" end="3600" vehsPerHour="150" type="car"/>
    <flow id="balanced_south_east" route="south_east_left" begin="0" end="3600" vehsPerHour="150" type="car"/>
    <flow id="balanced_south_west" route="south_west_right" begin="0" end="3600" vehsPerHour="150" type="car"/>
    <flow id="balanced_east_north" route="east_north_left" begin="0" end="3600" vehsPerHour="150" type="car"/>
    <flow id="balanced_east_south" route="east_south_right" begin="0" end="3600" vehsPerHour="150" type="car"/>
    <flow id="balanced_west_north" route="west_north_right" begin="0" end="3600" vehsPerHour="150" type="car"/>
    <flow id="balanced_west_south" route="west_south_left" begin="0" end="3600" vehsPerHour="150" type="car"/>
    
    <!-- Some truck traffic -->
    <flow id="balanced_trucks_ns" route="north_south_straight" begin="0" end="3600" vehsPerHour="50" type="truck"/>
    <flow id="balanced_trucks_sn" route="south_north_straight" begin="0" end="3600" vehsPerHour="50" type="truck"/>
    <flow id="balanced_trucks_ew" route="east_west_straight" begin="0" end="3600" vehsPerHour="50" type="truck"/>
    <flow id="balanced_trucks_we" route="west_east_straight" begin="0" end="3600" vehsPerHour="50" type="truck"/>

</routes>
